 ****** HSPICE -- I-2013.12-SP2 64-BIT (May 27 2014) RHEL64 ******              
  Copyright (C) 2014 Synopsys, Inc. All Rights Reserved.                        
  Unpublished-rights reserved under US copyright laws.
  This program is protected by law and is subject to the
  terms and conditions of the license agreement from Synopsys.
  Use of this program is your acceptance to be bound by the
  license agreement. HSPICE is the trademark of Synopsys, Inc.
  Input File: CP2_Vikram_Prasad_Charles_Guan_1.1891p0_41.6114p0_80.6842p0_2823.4
  Command line options: CP2_Vikram_Prasad_Charles_Guan_1.1891p0_41.6114p0_80.6842p0_2823.465.sp CP2_Vikram_Prasad_Charles_Guan_1.2139p0_42.4029p0_80.1594p0_2800.sp
 lic:  
 lic: FLEXlm: v10.9.8 
 lic: USER:   cguan2               HOSTNAME: corn14.stanford.edu 
 lic: HOSTID: 001b213a6a25         PID:      4267 
 lic: Using FLEXlm license file: 
 lic: 27000@cadlic0 
 lic: Checkout 1 hspice 
 lic: License/Maintenance for hspice will expire on 09-dec-2014/2014.09 
 lic: 5(in_use)/200(total) FLOATING license(s) on SERVER 27000@cadlic0 
 lic:   
  **error** (CP2_Vikram_Prasad_Charles_Guan_1.1891p0_41.6114p0_80.6842p0_2823.465.sp:60) Reference nmos114 not found, or instance width or length does not fit into the wmax/wmin or lmax/lmin range.  It was referenced in element ml2a. The channel width=   2.000E-06 and length=   1.400E-06 .Please enter channel width  and length that do not exceed the referenced maximal area Lmax=   5.001E-05 Lmin=   1.000E-06 Wmax=   1.000E-02 Wmin=   2.000E-06

          ***** job aborted
 ****** HSPICE -- I-2013.12-SP2 64-BIT (May 27 2014) RHEL64 ******              
 ******  
 * design problem, ee114/214a- 2014

 ****** job statistics summary tnom=  25.000 temp=  25.000 ******
  
  
 ******  Machine Information  ******
 CPU:
 model name	: Quad-Core AMD Opteron(tm) Processor 2384
 cpu MHz	: 2700.000
  
 OS:
 Linux version 3.11.0-26-generic (buildd@comet) (gcc version 4.8.1 (Ubuntu/Linaro 4.8.1-10ubuntu8) ) #45-Ubuntu SMP Tue Jul 15 04:02:06 UTC 2014


  ******  HSPICE Threads Information  ******

  Command Line Threads Count :     1
  Available CPU Count        :     8
  Actual Threads Count       :     1


  ******  Circuit Statistics  ******
  # nodes       =      14 # elements   =      30
  # resistors   =       5 # capacitors =       3 # inductors   =       0
  # mutual_inds =       0 # vccs       =       0 # vcvs        =       0
  # cccs        =       0 # ccvs       =       0 # volt_srcs   =       4
  # curr_srcs   =       2 # diodes     =       0 # bjts        =       0
  # jfets       =       0 # mosfets    =      16 # U elements  =       0
  # T elements  =       0 # W elements =       0 # B elements  =       0
  # S elements  =       0 # P elements =       0 # va device   =       0
  # vector_srcs =       0 # N elements =       0


  ******  Runtime Statistics (seconds)  ******

  analysis           time    # points   tot. iter  conv.iter
  op point           0.00           1           0
  ac analysis        0.00        7001           0
  readin             0.01
  errchk             0.00
  setup              0.00
  output             0.00


           peak memory used        183.36 megabytes
           total cpu time            0.01 seconds
           total elapsed time        1.52 seconds
           job started at     23:15:13 11/30/2014
           job ended   at     23:15:15 11/30/2014


 lic: Release hspice token(s) 
 lic: total license checkout elapse time:        1.48(s)
